*KEYWORD
$
$ File created by cubit version 16.5.3
$...>....1....>....2....>....3....>....4....>....5....>....6....>....7....>....8
*TITLE
$ cubit(C:/Users/ZET-A3 Plus/Documents/mesh_6x3.k): 02/25/2019: 21:32:55
*PART
Block 3
$    pid     sid     mid   eosid    hgid    grav  adpopt    tmid
       3       3     100       0       0       0       0     100
*SECTION_SHELL
       3
$     t1      t2      t3      t4
       1       1       1       1

*MAT_ELASTIC
     100   7e-06  206800    0.29     0.0     0.0       0
*MAT_THERMAL_ISOTROPIC
     100     0.0     0.0     0.0     0.0     0.0
     500   0.045
*NODE
$    nid               x               y               z      tc      rc
       1               3             1.5               0       0       0
       3         2.14286             1.5               0       0       0
      21         2.14286             0.5               0       0       0
      20               3             0.5               0       0       0
       4         1.28571             1.5               0       0       0
      22         1.28571             0.5               0       0       0
       5        0.428571             1.5               0       0       0
      23        0.428571             0.5               0       0       0
       6       -0.428571             1.5               0       0       0
      24       -0.428571             0.5               0       0       0
       7        -1.28571             1.5               0       0       0
      25        -1.28571             0.5               0       0       0
       8        -2.14286             1.5               0       0       0
      26        -2.14286             0.5               0       0       0
       2              -3             1.5               0       0       0
      10              -3             0.5               0       0       0
      27         2.14286            -0.5               0       0       0
      19               3            -0.5               0       0       0
      28         1.28571            -0.5               0       0       0
      29        0.428571            -0.5               0       0       0
$ ... 12 like lines cut
$
$...>....1....>....2....>....3....>....4....>....5....>....6....>....7....>....8
$    eid     pid      n1      n2      n3      n4      n5      n6      n7      n8
*ELEMENT_SHELL
       1       3       1       3      21      20
       2       3       3       4      22      21
       3       3       4       5      23      22
       4       3       5       6      24      23
       5       3       6       7      25      24
       6       3       7       8      26      25
       7       3       8       2      10      26
       8       3      20      21      27      19
       9       3      21      22      28      27
      10       3      22      23      29      28
      11       3      23      24      30      29
      12       3      24      25      31      30
      13       3      25      26      32      31
      14       3      26      10      11      32
      15       3      19      27      18      12
      16       3      27      28      17      18
      17       3      28      29      16      17
      18       3      29      30      15      16
      19       3      30      31      14      15
      20       3      31      32      13      14
      21       3      32      11       9      13
*END
