*KEYWORD
$
$ File created by cubit version 16.6b
$...>....1....>....2....>....3....>....4....>....5....>....6....>....7....>....8
*TITLE
$ cubit(/home/fidesys/data/test_mesh.k): 02/04/2020: 17:06:34
*PART
Block 1
$    pid     sid     mid   eosid    hgid    grav  adpopt    tmid
       1       1     100       0       0       0       0     100
*SECTION_SHELL
       1
$     t1      t2      t3      t4
       1       1       1       1

*MAT_ELASTIC
     100   7e-06  206800    0.29     0.0     0.0       0
*MAT_THERMAL_ISOTROPIC
     100     0.0     0.0     0.0     0.0     0.0
     500   0.045
*NODE
$    nid               x               y               z      tc      rc
       1               3               3               0       0       0
       3             2.4               3               0       0       0
      41             2.4             2.4               0       0       0
      40               3             2.4               0       0       0
       4             1.8               3               0       0       0
      42             1.8             2.4               0       0       0
       5             1.2               3               0       0       0
      43             1.2             2.4               0       0       0
       6             0.6               3               0       0       0
      44             0.6             2.4               0       0       0
       7               0               3               0       0       0
      45    -5.55112e-17             2.4               0       0       0
       8            -0.6               3               0       0       0
      46            -0.6             2.4               0       0       0
       9            -1.2               3               0       0       0
      47            -1.2             2.4               0       0       0
      10            -1.8               3               0       0       0
      48            -1.8             2.4               0       0       0
      11            -2.4               3               0       0       0
      49            -2.4             2.4               0       0       0
$ ... 101 like lines cut
$
$...>....1....>....2....>....3....>....4....>....5....>....6....>....7....>....8
$    eid     pid      n1      n2      n3      n4      n5      n6      n7      n8
*ELEMENT_SHELL
       1       1       1       3      41      40
       2       1       3       4      42      41
       3       1       4       5      43      42
       4       1       5       6      44      43
       5       1       6       7      45      44
       6       1       7       8      46      45
       7       1       8       9      47      46
       8       1       9      10      48      47
       9       1      10      11      49      48
      10       1      11       2      13      49
      11       1      40      41      50      39
      12       1      41      42      51      50
      13       1      42      43      52      51
      14       1      43      44      53      52
      15       1      44      45      54      53
      16       1      45      46      55      54
      17       1      46      47      56      55
      18       1      47      48      57      56
      19       1      48      49      58      57
      20       1      49      13      14      58
$ ... 80 like lines cut
*END
